16

 C                 -0.59851600    1.50319000    0.55378800
 C                 -1.31320600    0.72658800   -0.28184000
 H                 -0.08287100    1.10277400    1.41856200
 H                 -0.57421000    2.58321500    0.44212300
 H                 -1.85800700    1.20597900   -1.09431300
 C                 -1.31317200   -0.72664500   -0.28183100
 C                 -0.59844500   -1.50320400    0.55380500
 H                 -1.85795200   -1.20607000   -1.09429800
 H                 -0.57408900   -2.58322900    0.44215300
 H                 -0.08281800   -1.10275300    1.41857300
 C                  1.81274700    0.66825800   -0.28624400
 C                  1.81276300   -0.66819200   -0.28626900
 H                  2.16570500    1.24366700    0.56578400
 H                  1.52719600    1.24134800   -1.16192600
 H                  1.52722400   -1.24125600   -1.16197200
 H                  2.16573800   -1.24362500    0.56573600