16

 C                 -0.22806600    1.38045800    0.43940600
 C                 -1.28922400    0.67437600   -0.30383000
 H                 -0.18470300    1.11243400    1.50025600
 H                 -0.25672700    2.46880000    0.34448500
 H                 -1.92816600    1.23051900   -0.98815300
 C                 -1.28919200   -0.67443200   -0.30382300
 C                 -0.22799500   -1.38045700    0.43941400
 H                 -1.92811000   -1.23061200   -0.98813900
 H                 -0.25661600   -2.46880100    0.34451200
 H                 -0.18463800   -1.11241700    1.50026000
 C                  1.40810900    0.75925100   -0.15607400
 C                  1.40812600   -0.75920200   -0.15609200
 H                  2.13362900    1.19679500    0.53566100
 H                  1.53615500    1.20041300   -1.14721300
 H                  1.53615800   -1.20033200   -1.14724800
 H                  2.13368100   -1.19674400    0.53560800